Version 4
SHEET 1 880 680
WIRE 352 160 224 160
FLAG 32 160 Vin
FLAG 544 160 Vout
FLAG 112 96 VHIGH
FLAG 432 96 VHIGH
FLAG 112 224 VLOW
FLAG 432 224 VLOW
SYMBOL inverter 112 160 R0
SYMATTR InstName X1
SYMBOL inverter 432 160 R0
SYMATTR InstName X2
TEXT -400 88 Left 2 !.include models.txt
TEXT -384 136 Left 2 !.tran 20u
