Version 4
SHEET 1 1304 1284
WIRE 352 16 352 -16
WIRE -112 64 -112 32
WIRE 96 80 -80 80
WIRE 432 80 384 80
WIRE 496 80 432 80
WIRE -176 96 -592 96
WIRE 496 96 496 80
WIRE 32 112 -80 112
WIRE -112 160 -112 128
WIRE 144 192 144 144
WIRE 320 192 320 144
WIRE 416 192 400 192
WIRE 416 208 416 192
WIRE 32 256 32 112
WIRE 480 256 32 256
WIRE -416 288 -464 288
WIRE 832 400 832 368
WIRE 304 512 128 512
WIRE 32 528 -64 528
WIRE 128 528 128 512
WIRE 128 528 32 528
WIRE 304 528 144 528
WIRE 304 544 160 544
WIRE 304 560 176 560
WIRE 480 560 480 256
WIRE 480 560 368 560
WIRE 48 576 -64 576
WIRE 144 576 144 528
WIRE 144 576 48 576
WIRE 304 576 192 576
WIRE 304 592 208 592
WIRE 304 608 224 608
WIRE 64 624 -64 624
WIRE 160 624 160 544
WIRE 160 624 64 624
WIRE 304 624 256 624
WIRE -592 640 -592 96
WIRE -416 640 -592 640
WIRE 336 656 336 640
WIRE 80 672 -64 672
WIRE 176 672 176 560
WIRE 176 672 80 672
WIRE -416 720 -496 720
WIRE 96 720 -64 720
WIRE 192 720 192 576
WIRE 192 720 96 720
WIRE 112 768 -64 768
WIRE 208 768 208 592
WIRE 208 768 112 768
WIRE -416 816 -496 816
WIRE 128 816 -64 816
WIRE 224 816 224 608
WIRE 224 816 128 816
WIRE 592 848 592 816
WIRE 144 864 -64 864
WIRE 256 864 256 624
WIRE 256 864 144 864
WIRE 928 864 880 864
WIRE 928 896 880 896
WIRE -288 928 -288 896
WIRE 528 944 416 944
WIRE 928 944 880 944
WIRE 416 976 416 944
WIRE 32 992 32 528
WIRE 48 992 48 576
WIRE 64 992 64 624
WIRE 80 992 80 672
WIRE 96 992 96 720
WIRE 112 992 112 768
WIRE 128 992 128 816
WIRE 144 992 144 864
WIRE 928 992 880 992
WIRE 224 1008 160 1008
WIRE 16 1024 -48 1024
WIRE 192 1024 160 1024
WIRE 192 1040 192 1024
WIRE 592 1072 592 1024
WIRE 416 1088 416 1056
WIRE 32 1120 32 1040
WIRE 32 1120 -112 1120
WIRE 48 1136 48 1040
WIRE 48 1136 -112 1136
WIRE 64 1152 64 1040
WIRE 64 1152 -112 1152
WIRE -176 1168 -240 1168
WIRE 80 1168 80 1040
WIRE 80 1168 -112 1168
WIRE 96 1184 96 1040
WIRE 96 1184 -112 1184
WIRE 112 1200 112 1040
WIRE 112 1200 -112 1200
WIRE 128 1216 128 1040
WIRE 128 1216 -112 1216
WIRE 144 1232 144 1040
WIRE 144 1232 -112 1232
WIRE -144 1264 -144 1248
FLAG 336 656 0
FLAG 928 864 clk_2M
FLAG 928 896 clk_SH
FLAG 928 944 clk_reset
FLAG 928 992 clk_door
FLAG 592 1072 0
FLAG 416 1088 0
FLAG 416 944 clk_4MHz
FLAG 592 816 VDD
FLAG -288 928 0
FLAG -496 816 clk_reset
FLAG -496 720 clk_2M
FLAG -464 288 VDD
FLAG 144 192 0
FLAG 496 176 0
FLAG 432 80 Vin
FLAG 352 -16 VDD
FLAG -112 160 0
FLAG -112 32 VDD
FLAG -48 1024 clk_door
FLAG 224 1008 VDD
FLAG 192 1040 0
FLAG -144 1264 0
FLAG -240 1168 Vout
FLAG 832 480 0
FLAG 832 368 VDD
FLAG 416 208 0
SYMBOL sample_hold 288 80 M0
SYMATTR InstName X1
SYMBOL comparator -128 80 M0
SYMATTR InstName X2
SYMBOL SAR_logic -288 416 R0
SYMATTR InstName X3
SYMBOL R2R 320 528 R0
SYMATTR InstName X4
SYMBOL outputdoor 96 1008 R0
SYMATTR InstName X5
SYMBOL R2R -128 1136 M0
SYMATTR InstName X6
SYMBOL Clock_half 640 912 R0
SYMATTR InstName X7
SYMBOL voltage 416 960 R0
WINDOW 123 0 0 Left 0
WINDOW 39 0 0 Left 0
SYMATTR InstName V1
SYMATTR Value PULSE(0 1 0 1p 1p 125n 250n)
SYMBOL voltage 496 80 R0
WINDOW 123 0 0 Left 0
WINDOW 39 0 0 Left 0
SYMATTR InstName V2
SYMATTR Value SINE(0.7 0.45 10k 0)
SYMBOL voltage 832 384 R0
WINDOW 123 0 0 Left 0
WINDOW 39 0 0 Left 0
SYMATTR InstName V3
SYMATTR Value 1
SYMBOL voltage 304 192 R270
WINDOW 0 32 56 VTop 2
WINDOW 3 -32 56 VBottom 2
WINDOW 123 0 0 Left 0
WINDOW 39 0 0 Left 0
SYMATTR InstName V4
SYMATTR Value PULSE(0 1 0 1p 1p 500n 5u)
TEXT 1080 360 Left 2 !.include models.txt
TEXT 1088 408 Left 2 !.tran 100u
